/*--------------------------------*- C++ -*----------------------------------*\
  =========                 |
  \\      /  F ield         | OpenFOAM: The Open Source CFD Toolbox
   \\    /   O peration     | Website:  https://openfoam.org
    \\  /    A nd           | Version:  7
     \\/     M anipulation  |
\*---------------------------------------------------------------------------*/
FoamFile
{
    version     2.0;
    format      ascii;
    class       volScalarField;
    location    "0";
    object      omega;
}
// * * * * * * * * * * * * * * * * * * * * * * * * * * * * * * * * * * * * * //

dimensions      [0 0 -1 0 0 0 0];

internalField   uniform 8147.54454;

boundaryField
{
    Inlet
    {
        type            fixedValue;
        value           uniform 8147.54454;        
    }
    
    Outlet
    {
        type            inletOutlet;
        inletValue      uniform 8147.54454;
    }

    "(Wall_1|Wall_2|Wall_3)"
    {
        type            omegaWallFunction;
	      value		        $internalField;
    }

    "(AMI1_2|AMI2_2|AMI2_1|AMI1_1)"
    {
        type            cyclicAMI;
    }

}


// ************************************************************************* //
