/*--------------------------------*- C++ -*----------------------------------*\
| =========                 |                                                 |
| \\      /  F ield         | OpenFOAM: The Open Source CFD Toolbox           |
|  \\    /   O peration     | Version:  5                                     |
|   \\  /    A nd           | Web:      www.OpenFOAM.org                      |
|    \\/     M anipulation  |                                                 |
\*---------------------------------------------------------------------------*/
FoamFile
{
    version     2.0;
    format      ascii;
    class       volVectorField;
    object      U;
}
// * * * * * * * * * * * * * * * * * * * * * * * * * * * * * * * * * * * * * //

dimensions      [0 1 -1 0 0 0 0];

internalField   uniform (0 0 0);

boundaryField
{

    Inlet
    {

        type                flowRateInletVelocity;
        volumetricFlowRate  table (
                                        (0.0 0.00001)
                                        (0.02 0.0416666667)
                                        (10.0 0.0416666667)
                                    );
        
        value               uniform (0 0 0);
        extrapolateProfile  no;
    }
    
    Outlet
    {
        type            inletOutlet;
        value           $internalField;
        inletValue      uniform (0 0 0);
    }


    "(Wall_1|Wall_3)"
    {
        type            noSlip;
    }

    Wall_2
    {
        type            movingWallVelocity;
        value           uniform (0 0 0);        
    }

    "(AMI1_2|AMI2_2|AMI2_1|AMI1_1)"
    {
        type            cyclicAMI;
    }
}

// ************************************************************************* //
